fast_edit_distance.cp38-win32.pyd,sha256=MT3DeIFghmpVfqO2kVPn45CMdj5Dt7SKAp6QfmEQktE,38400
fast_edit_distance-1.2.2.dist-info/LICENSE,sha256=bRT-dg1_zWv23-bOTc0UJZZr4stAof8CkC0kaLIzpj4,1087
fast_edit_distance-1.2.2.dist-info/METADATA,sha256=8pMKMDR75wxOCz3HUQUXJ6W0LCxDneNZavgAzhGKB7M,2481
fast_edit_distance-1.2.2.dist-info/WHEEL,sha256=scj5W9U9sWrGdbOQhc2YJLlEmGT80ETGeAVW-_h6ODU,95
fast_edit_distance-1.2.2.dist-info/top_level.txt,sha256=6R_-_xCstoVx7myspDapFlHUfCZHCrbyHxRBKOVqA1E,19
fast_edit_distance-1.2.2.dist-info/RECORD,,
